Version 4
SHEET 1 880 680
WIRE 560 16 400 16
WIRE 560 48 560 16
WIRE -80 128 -80 112
WIRE 48 128 48 112
WIRE 48 128 -80 128
WIRE -80 144 -80 128
WIRE 464 160 464 128
WIRE 400 176 400 16
WIRE 400 176 384 176
WIRE 432 176 400 176
WIRE 560 192 560 128
WIRE 560 192 496 192
WIRE 592 192 560 192
WIRE 432 208 400 208
WIRE 400 256 400 208
WIRE 464 272 464 224
FLAG -80 32 5V
FLAG 48 32 VIN
FLAG -80 240 -5V
FLAG 464 272 -5V
FLAG 464 128 5V
FLAG 304 176 VIN
FLAG 592 192 V0
FLAG 48 128 0
FLAG 400 256 0
SYMBOL Opamps\\LT1638 464 128 R0
SYMATTR InstName U1
SYMBOL voltage -80 16 R0
WINDOW 123 0 0 Left 0
WINDOW 39 0 0 Left 0
SYMATTR InstName V1
SYMATTR Value 10
SYMBOL voltage -80 128 R0
WINDOW 123 0 0 Left 0
WINDOW 39 0 0 Left 0
SYMATTR InstName V2
SYMATTR Value 10
SYMBOL voltage 48 16 R0
WINDOW 123 0 0 Left 0
WINDOW 39 0 0 Left 0
SYMATTR InstName V3
SYMATTR Value SINE(2.5 2.5 100)
SYMBOL res 400 160 R90
WINDOW 0 0 56 VBottom 2
WINDOW 3 32 56 VTop 2
SYMATTR InstName R1
SYMATTR Value 1000
SYMBOL res 544 32 R0
SYMATTR InstName R2
SYMATTR Value 660
TEXT 688 8 Left 2 !.tran 0 100ms 0
