Version 4
SHEET 1 880 680
WIRE 112 128 -48 128
WIRE 272 128 192 128
WIRE -48 144 -48 128
WIRE 272 144 272 128
WIRE -48 272 -48 224
WIRE 272 272 272 224
WIRE 272 272 -48 272
WIRE -48 304 -48 272
FLAG -48 304 0
FLAG 272 128 Vo
FLAG -48 128 Vin
SYMBOL voltage -48 128 R0
WINDOW 123 0 0 Left 0
WINDOW 39 0 0 Left 0
SYMATTR InstName V1
SYMATTR Value SINE(2.5 2.5 1k)
SYMBOL res 208 112 R90
WINDOW 0 0 56 VBottom 2
WINDOW 3 32 56 VTop 2
SYMATTR InstName R1
SYMATTR Value 500
SYMBOL res 288 240 R180
WINDOW 0 36 76 Left 2
WINDOW 3 36 40 Left 2
SYMATTR InstName R2
SYMATTR Value 1000
TEXT -82 328 Left 2 !.tran 0 10ms 0
